*Heading
 beam test
** Job name: beam_job Model name: Beam
** Generated by: Abaqus/CAE 2017
*Preprint, echo=NO, model=NO, history=NO, contact=NO
**
** PARTS
**
*Part, name=Beam
*End Part
**  
**
** ASSEMBLY
**
*Assembly, name=Assembly
**  
*Instance, name=beamInstance, part=Beam
*Node
      1,        -100.,         -10.,          25.
      2,        -100.,           0.,          25.
      3,        -100.,          10.,          25.
      4,        -100.,         -10.,    16.666666
      5,        -100.,           0.,    16.666666
      6,        -100.,          10.,    16.666666
      7,        -100.,         -10.,   8.33333302
      8,        -100.,           0.,   8.33333302
      9,        -100.,          10.,   8.33333302
     10,        -100.,         -10.,           0.
     11,        -100.,           0.,           0.
     12,        -100.,          10.,           0.
     13,         -90.,         -10.,          25.
     14,         -90.,           0.,          25.
     15,         -90.,          10.,          25.
     16,         -90.,         -10.,    16.666666
     17,         -90.,           0.,    16.666666
     18,         -90.,          10.,    16.666666
     19,         -90.,         -10.,   8.33333302
     20,         -90.,           0.,   8.33333302
** ... 232 like lines cut
*Element, type=C3D8I
  1,  13,  14,  17,  16,   1,   2,   5,   4
  2,  14,  15,  18,  17,   2,   3,   6,   5
  3,  16,  17,  20,  19,   4,   5,   8,   7
  4,  17,  18,  21,  20,   5,   6,   9,   8
  5,  19,  20,  23,  22,   7,   8,  11,  10
  6,  20,  21,  24,  23,   8,   9,  12,  11
  7,  25,  26,  29,  28,  13,  14,  17,  16
  8,  26,  27,  30,  29,  14,  15,  18,  17
  9,  28,  29,  32,  31,  16,  17,  20,  19
 10,  29,  30,  33,  32,  17,  18,  21,  20
 11,  31,  32,  35,  34,  19,  20,  23,  22
 12,  32,  33,  36,  35,  20,  21,  24,  23
 13,  37,  38,  41,  40,  25,  26,  29,  28
 14,  38,  39,  42,  41,  26,  27,  30,  29
 15,  40,  41,  44,  43,  28,  29,  32,  31
 16,  41,  42,  45,  44,  29,  30,  33,  32
 17,  43,  44,  47,  46,  31,  32,  35,  34
 18,  44,  45,  48,  47,  32,  33,  36,  35
 19,  49,  50,  53,  52,  37,  38,  41,  40
 20,  50,  51,  54,  53,  38,  39,  42,  41
** ... 100 like lines cut
*Nset, nset=_G2, internal, generate
   1,  252,    1
*Elset, elset=_G2, internal, generate
   1,  120,    1
** Section: beamSection
*Solid Section, elset=_G2, material=Steel
1.,
*End Instance
**  
*Nset, nset=_G3, internal, instance=beamInstance, generate
  1,  12,   1
*Elset, elset=_G3, internal, instance=beamInstance, generate
 1,  6,  1
*Elset, elset=__G4_S4, internal, instance=beamInstance, generate
   2,  120,    2
*Surface, type=ELEMENT, name=_G4, internal
__G4_S4, S4
*End Assembly
** 
** MATERIALS
** 
*Material, name=Steel
*Elastic
209000., 0.3
** ----------------------------------------------------------------
** 
** STEP: beamLoad
** 
*Step, name=beamLoad, nlgeom=NO
Load the top of the beam
*Static
0.1, 1., 1e-05, 1.
** 
** BOUNDARY CONDITIONS
** 
** Name: Fixed Type: Symmetry/Antisymmetry/Encastre
*Boundary
_G3, ENCASTRE
** 
** LOADS
** 
** Name: Pressure   Type: Pressure
*Dsload
_G4, P, 0.5
** 
** OUTPUT REQUESTS
** 
*Restart, write, frequency=0
** 
** FIELD OUTPUT: F-Output-1
** 
*Output, field, variable=PRESELECT
** 
** HISTORY OUTPUT: H-Output-1
** 
*Output, history, variable=PRESELECT
*End Step
