*Heading
** Job name: Job-1 Model name: Model-1
** Generated by: Abaqus/CAE 2017
*Preprint, echo=NO, model=NO, history=NO, contact=NO
**
** PARTS
**
*Part, name=pile
*Node
      1,          10.,           5.,           4.
      2,          10.,           4.,           4.
      3,          10.,           3.,           4.
      4,          10.,           2.,           4.
      5,          10.,           1.,           4.
      6,          10.,           0.,           4.
      7,          10.,           5.,           3.
      8,          10.,           4.,           3.
      9,          10.,           3.,           3.
     10,          10.,           2.,           3.
     11,          10.,           1.,           3.
     12,          10.,           0.,           3.
     13,          10.,           5.,           2.
     14,          10.,           4.,           2.
     15,          10.,           3.,           2.
     16,          10.,           2.,           2.
     17,          10.,           1.,           2.
     18,          10.,           0.,           2.
     19,          10.,           5.,           1.
     20,          10.,           4.,           1.
** ... 310 like lines cut
*Element, type=C3D8
  1,  31,  32,  38,  37,   1,   2,   8,   7
  2,  32,  33,  39,  38,   2,   3,   9,   8
  3,  33,  34,  40,  39,   3,   4,  10,   9
  4,  34,  35,  41,  40,   4,   5,  11,  10
  5,  35,  36,  42,  41,   5,   6,  12,  11
  6,  37,  38,  44,  43,   7,   8,  14,  13
  7,  38,  39,  45,  44,   8,   9,  15,  14
  8,  39,  40,  46,  45,   9,  10,  16,  15
  9,  40,  41,  47,  46,  10,  11,  17,  16
 10,  41,  42,  48,  47,  11,  12,  18,  17
 11,  43,  44,  50,  49,  13,  14,  20,  19
 12,  44,  45,  51,  50,  14,  15,  21,  20
 13,  45,  46,  52,  51,  15,  16,  22,  21
 14,  46,  47,  53,  52,  16,  17,  23,  22
 15,  47,  48,  54,  53,  17,  18,  24,  23
 16,  49,  50,  56,  55,  19,  20,  26,  25
 17,  50,  51,  57,  56,  20,  21,  27,  26
 18,  51,  52,  58,  57,  21,  22,  28,  27
 19,  52,  53,  59,  58,  22,  23,  29,  28
 20,  53,  54,  60,  59,  23,  24,  30,  29
** ... 180 like lines cut
*Nset, nset=Set-1, generate
   1,  330,    1
*Elset, elset=Set-1, generate
   1,  200,    1
** Section: Section-1
*Solid Section, elset=Set-1, material=Material-1
,
*End Part
**  
**
** ASSEMBLY
**
*Assembly, name=Assembly
**  
*Instance, name=pile-1, part=pile
*End Instance
**  
*Nset, nset=Set-1, instance=pile-1
 1,
*Nset, nset=Set-2, instance=pile-1, generate
 301,  330,    1
*Elset, elset=Set-2, instance=pile-1, generate
 181,  200,    1
*End Assembly
** 
** MATERIALS
** 
*Material, name=Material-1
*Elastic
 6e+08, 0.3
** ----------------------------------------------------------------
** 
** STEP: Step-1
** 
*Step, name=Step-1, nlgeom=NO
*Static
1., 1., 1e-05, 1.
** 
** BOUNDARY CONDITIONS
** 
** Name: BC-1 Type: Displacement/Rotation
*Boundary
Set-2, 1, 1
Set-2, 2, 2
Set-2, 3, 3
** 
** LOADS
** 
** Name: Load-1   Type: Concentrated force
*Cload
Set-1, 1, 2300.
** 
** OUTPUT REQUESTS
** 
*Restart, write, frequency=0
** 
** FIELD OUTPUT: F-Output-1
** 
*Output, field, variable=PRESELECT
** 
** HISTORY OUTPUT: H-Output-1
** 
*Output, history, variable=PRESELECT
*End Step
